* NGSPICE file created from Top_module.ext - technology: sky130A

* Black-box entry subcircuit for sky130_fd_sc_hd__decap_6 abstract view
.subckt sky130_fd_sc_hd__decap_6 VGND VNB VPB VPWR
.ends

* Black-box entry subcircuit for sky130_fd_sc_hd__mux2_1 abstract view
.subckt sky130_fd_sc_hd__mux2_1 A0 A1 S VGND VNB VPB VPWR X
.ends

* Black-box entry subcircuit for sky130_ef_sc_hd__decap_12 abstract view
.subckt sky130_ef_sc_hd__decap_12 VPWR VGND VPB VNB
.ends

* Black-box entry subcircuit for sky130_fd_sc_hd__a22o_1 abstract view
.subckt sky130_fd_sc_hd__a22o_1 A1 A2 B1 B2 VGND VNB VPB VPWR X
.ends

* Black-box entry subcircuit for sky130_fd_sc_hd__and4bb_1 abstract view
.subckt sky130_fd_sc_hd__and4bb_1 A_N B_N C D VGND VNB VPB VPWR X
.ends

* Black-box entry subcircuit for sky130_fd_sc_hd__clkbuf_1 abstract view
.subckt sky130_fd_sc_hd__clkbuf_1 A VGND VNB VPB VPWR X
.ends

* Black-box entry subcircuit for sky130_fd_sc_hd__decap_4 abstract view
.subckt sky130_fd_sc_hd__decap_4 VGND VNB VPB VPWR
.ends

* Black-box entry subcircuit for sky130_fd_sc_hd__decap_3 abstract view
.subckt sky130_fd_sc_hd__decap_3 VGND VNB VPB VPWR
.ends

* Black-box entry subcircuit for sky130_fd_sc_hd__fill_1 abstract view
.subckt sky130_fd_sc_hd__fill_1 VGND VNB VPB VPWR
.ends

* Black-box entry subcircuit for sky130_fd_sc_hd__and2_1 abstract view
.subckt sky130_fd_sc_hd__and2_1 A B VGND VNB VPB VPWR X
.ends

* Black-box entry subcircuit for sky130_fd_sc_hd__decap_8 abstract view
.subckt sky130_fd_sc_hd__decap_8 VGND VNB VPB VPWR
.ends

* Black-box entry subcircuit for sky130_fd_sc_hd__fill_2 abstract view
.subckt sky130_fd_sc_hd__fill_2 VGND VNB VPB VPWR
.ends

* Black-box entry subcircuit for sky130_fd_sc_hd__a221o_1 abstract view
.subckt sky130_fd_sc_hd__a221o_1 A1 A2 B1 B2 C1 VGND VNB VPB VPWR X
.ends

* Black-box entry subcircuit for sky130_fd_sc_hd__dlygate4sd3_1 abstract view
.subckt sky130_fd_sc_hd__dlygate4sd3_1 A VGND VNB VPB VPWR X
.ends

* Black-box entry subcircuit for sky130_fd_sc_hd__clkbuf_4 abstract view
.subckt sky130_fd_sc_hd__clkbuf_4 A VGND VNB VPB VPWR X
.ends

* Black-box entry subcircuit for sky130_fd_sc_hd__tapvpwrvgnd_1 abstract view
.subckt sky130_fd_sc_hd__tapvpwrvgnd_1 VGND VPWR
.ends

* Black-box entry subcircuit for sky130_fd_sc_hd__dfxtp_1 abstract view
.subckt sky130_fd_sc_hd__dfxtp_1 CLK D VGND VNB VPB VPWR Q
.ends

* Black-box entry subcircuit for sky130_fd_sc_hd__diode_2 abstract view
.subckt sky130_fd_sc_hd__diode_2 DIODE VGND VNB VPB VPWR
.ends

* Black-box entry subcircuit for sky130_fd_sc_hd__buf_6 abstract view
.subckt sky130_fd_sc_hd__buf_6 A VGND VNB VPB VPWR X
.ends

* Black-box entry subcircuit for sky130_fd_sc_hd__dfrtp_1 abstract view
.subckt sky130_fd_sc_hd__dfrtp_1 CLK D RESET_B VGND VNB VPB VPWR Q
.ends

* Black-box entry subcircuit for sky130_fd_sc_hd__buf_2 abstract view
.subckt sky130_fd_sc_hd__buf_2 A VGND VNB VPB VPWR X
.ends

* Black-box entry subcircuit for sky130_fd_sc_hd__clkinv_4 abstract view
.subckt sky130_fd_sc_hd__clkinv_4 A VGND VNB VPB VPWR Y
.ends

* Black-box entry subcircuit for sky130_fd_sc_hd__o22a_1 abstract view
.subckt sky130_fd_sc_hd__o22a_1 A1 A2 B1 B2 VGND VNB VPB VPWR X
.ends

* Black-box entry subcircuit for sky130_fd_sc_hd__a21o_1 abstract view
.subckt sky130_fd_sc_hd__a21o_1 A1 A2 B1 VGND VNB VPB VPWR X
.ends

* Black-box entry subcircuit for sky130_fd_sc_hd__and4b_1 abstract view
.subckt sky130_fd_sc_hd__and4b_1 A_N B C D VGND VNB VPB VPWR X
.ends

* Black-box entry subcircuit for sky130_fd_sc_hd__nor2_8 abstract view
.subckt sky130_fd_sc_hd__nor2_8 A B VGND VNB VPB VPWR Y
.ends

* Black-box entry subcircuit for sky130_fd_sc_hd__buf_4 abstract view
.subckt sky130_fd_sc_hd__buf_4 A VGND VNB VPB VPWR X
.ends

* Black-box entry subcircuit for sky130_fd_sc_hd__a211o_1 abstract view
.subckt sky130_fd_sc_hd__a211o_1 A1 A2 B1 C1 VGND VNB VPB VPWR X
.ends

* Black-box entry subcircuit for sky130_fd_sc_hd__dfrtp_2 abstract view
.subckt sky130_fd_sc_hd__dfrtp_2 CLK D RESET_B VGND VNB VPB VPWR Q
.ends

* Black-box entry subcircuit for sky130_fd_sc_hd__a32o_1 abstract view
.subckt sky130_fd_sc_hd__a32o_1 A1 A2 A3 B1 B2 VGND VNB VPB VPWR X
.ends

* Black-box entry subcircuit for sky130_fd_sc_hd__o21a_1 abstract view
.subckt sky130_fd_sc_hd__o21a_1 A1 A2 B1 VGND VNB VPB VPWR X
.ends

* Black-box entry subcircuit for sky130_fd_sc_hd__xnor2_1 abstract view
.subckt sky130_fd_sc_hd__xnor2_1 A B VGND VNB VPB VPWR Y
.ends

* Black-box entry subcircuit for sky130_fd_sc_hd__inv_2 abstract view
.subckt sky130_fd_sc_hd__inv_2 A VGND VNB VPB VPWR Y
.ends

* Black-box entry subcircuit for sky130_fd_sc_hd__xor2_1 abstract view
.subckt sky130_fd_sc_hd__xor2_1 A B VGND VNB VPB VPWR X
.ends

* Black-box entry subcircuit for sky130_fd_sc_hd__clkbuf_16 abstract view
.subckt sky130_fd_sc_hd__clkbuf_16 A VGND VNB VPB VPWR X
.ends

* Black-box entry subcircuit for sky130_fd_sc_hd__or3_1 abstract view
.subckt sky130_fd_sc_hd__or3_1 A B C VGND VNB VPB VPWR X
.ends

* Black-box entry subcircuit for sky130_fd_sc_hd__or2b_1 abstract view
.subckt sky130_fd_sc_hd__or2b_1 A B_N VGND VNB VPB VPWR X
.ends

* Black-box entry subcircuit for sky130_fd_sc_hd__clkbuf_8 abstract view
.subckt sky130_fd_sc_hd__clkbuf_8 A VGND VNB VPB VPWR X
.ends

* Black-box entry subcircuit for sky130_fd_sc_hd__dfrtp_4 abstract view
.subckt sky130_fd_sc_hd__dfrtp_4 CLK D RESET_B VGND VNB VPB VPWR Q
.ends

* Black-box entry subcircuit for sky130_fd_sc_hd__o22a_2 abstract view
.subckt sky130_fd_sc_hd__o22a_2 A1 A2 B1 B2 VGND VNB VPB VPWR X
.ends

* Black-box entry subcircuit for sky130_fd_sc_hd__a2111o_1 abstract view
.subckt sky130_fd_sc_hd__a2111o_1 A1 A2 B1 C1 D1 VGND VNB VPB VPWR X
.ends

* Black-box entry subcircuit for sky130_fd_sc_hd__clkbuf_2 abstract view
.subckt sky130_fd_sc_hd__clkbuf_2 A VGND VNB VPB VPWR X
.ends

* Black-box entry subcircuit for sky130_fd_sc_hd__nand2_4 abstract view
.subckt sky130_fd_sc_hd__nand2_4 A B VGND VNB VPB VPWR Y
.ends

* Black-box entry subcircuit for sky130_fd_sc_hd__dfxtp_4 abstract view
.subckt sky130_fd_sc_hd__dfxtp_4 CLK D VGND VNB VPB VPWR Q
.ends

* Black-box entry subcircuit for sky130_fd_sc_hd__nand2_1 abstract view
.subckt sky130_fd_sc_hd__nand2_1 A B VGND VNB VPB VPWR Y
.ends

* Black-box entry subcircuit for sky130_fd_sc_hd__buf_1 abstract view
.subckt sky130_fd_sc_hd__buf_1 A VGND VNB VPB VPWR X
.ends

* Black-box entry subcircuit for sky130_fd_sc_hd__o21bai_1 abstract view
.subckt sky130_fd_sc_hd__o21bai_1 A1 A2 B1_N VGND VNB VPB VPWR Y
.ends

* Black-box entry subcircuit for sky130_fd_sc_hd__mux2_2 abstract view
.subckt sky130_fd_sc_hd__mux2_2 A0 A1 S VGND VNB VPB VPWR X
.ends

* Black-box entry subcircuit for sky130_fd_sc_hd__a21oi_1 abstract view
.subckt sky130_fd_sc_hd__a21oi_1 A1 A2 B1 VGND VNB VPB VPWR Y
.ends

* Black-box entry subcircuit for sky130_fd_sc_hd__o31ai_1 abstract view
.subckt sky130_fd_sc_hd__o31ai_1 A1 A2 A3 B1 VGND VNB VPB VPWR Y
.ends

* Black-box entry subcircuit for sky130_fd_sc_hd__nor2_2 abstract view
.subckt sky130_fd_sc_hd__nor2_2 A B VGND VNB VPB VPWR Y
.ends

* Black-box entry subcircuit for sky130_fd_sc_hd__or3b_4 abstract view
.subckt sky130_fd_sc_hd__or3b_4 A B C_N VGND VNB VPB VPWR X
.ends

* Black-box entry subcircuit for sky130_fd_sc_hd__mux4_2 abstract view
.subckt sky130_fd_sc_hd__mux4_2 A0 A1 A2 A3 S0 S1 VGND VNB VPB VPWR X
.ends

* Black-box entry subcircuit for sky130_fd_sc_hd__or3_2 abstract view
.subckt sky130_fd_sc_hd__or3_2 A B C VGND VNB VPB VPWR X
.ends

* Black-box entry subcircuit for sky130_fd_sc_hd__dfxtp_2 abstract view
.subckt sky130_fd_sc_hd__dfxtp_2 CLK D VGND VNB VPB VPWR Q
.ends

* Black-box entry subcircuit for sky130_fd_sc_hd__nor2_1 abstract view
.subckt sky130_fd_sc_hd__nor2_1 A B VGND VNB VPB VPWR Y
.ends

* Black-box entry subcircuit for sky130_fd_sc_hd__and3_1 abstract view
.subckt sky130_fd_sc_hd__and3_1 A B C VGND VNB VPB VPWR X
.ends

* Black-box entry subcircuit for sky130_fd_sc_hd__clkdlybuf4s25_1 abstract view
.subckt sky130_fd_sc_hd__clkdlybuf4s25_1 A VGND VNB VPB VPWR X
.ends

* Black-box entry subcircuit for sky130_fd_sc_hd__mux2_4 abstract view
.subckt sky130_fd_sc_hd__mux2_4 A0 A1 S VGND VNB VPB VPWR X
.ends

* Black-box entry subcircuit for sky130_fd_sc_hd__dlymetal6s2s_1 abstract view
.subckt sky130_fd_sc_hd__dlymetal6s2s_1 A VGND VNB VPB VPWR X
.ends

* Black-box entry subcircuit for sky130_fd_sc_hd__buf_8 abstract view
.subckt sky130_fd_sc_hd__buf_8 A VGND VNB VPB VPWR X
.ends

* Black-box entry subcircuit for sky130_fd_sc_hd__nand3_1 abstract view
.subckt sky130_fd_sc_hd__nand3_1 A B C VGND VNB VPB VPWR Y
.ends

* Black-box entry subcircuit for sky130_fd_sc_hd__or3b_1 abstract view
.subckt sky130_fd_sc_hd__or3b_1 A B C_N VGND VNB VPB VPWR X
.ends

* Black-box entry subcircuit for sky130_fd_sc_hd__or2_1 abstract view
.subckt sky130_fd_sc_hd__or2_1 A B VGND VNB VPB VPWR X
.ends

* Black-box entry subcircuit for sky130_fd_sc_hd__nor2_4 abstract view
.subckt sky130_fd_sc_hd__nor2_4 A B VGND VNB VPB VPWR Y
.ends

* Black-box entry subcircuit for sky130_fd_sc_hd__or4b_4 abstract view
.subckt sky130_fd_sc_hd__or4b_4 A B C D_N VGND VNB VPB VPWR X
.ends

* Black-box entry subcircuit for sky130_fd_sc_hd__o31a_1 abstract view
.subckt sky130_fd_sc_hd__o31a_1 A1 A2 A3 B1 VGND VNB VPB VPWR X
.ends

* Black-box entry subcircuit for sky130_fd_sc_hd__and3b_1 abstract view
.subckt sky130_fd_sc_hd__and3b_1 A_N B C VGND VNB VPB VPWR X
.ends

* Black-box entry subcircuit for sky130_fd_sc_hd__dfstp_1 abstract view
.subckt sky130_fd_sc_hd__dfstp_1 CLK D SET_B VGND VNB VPB VPWR Q
.ends

* Black-box entry subcircuit for sky130_fd_sc_hd__and2b_2 abstract view
.subckt sky130_fd_sc_hd__and2b_2 A_N B VGND VNB VPB VPWR X
.ends

* Black-box entry subcircuit for sky130_fd_sc_hd__buf_12 abstract view
.subckt sky130_fd_sc_hd__buf_12 A VGND VNB VPB VPWR X
.ends

* Black-box entry subcircuit for sky130_fd_sc_hd__o311a_1 abstract view
.subckt sky130_fd_sc_hd__o311a_1 A1 A2 A3 B1 C1 VGND VNB VPB VPWR X
.ends

* Black-box entry subcircuit for sky130_fd_sc_hd__or2b_2 abstract view
.subckt sky130_fd_sc_hd__or2b_2 A B_N VGND VNB VPB VPWR X
.ends

* Black-box entry subcircuit for sky130_fd_sc_hd__inv_8 abstract view
.subckt sky130_fd_sc_hd__inv_8 A VGND VNB VPB VPWR Y
.ends

* Black-box entry subcircuit for sky130_fd_sc_hd__mux4_1 abstract view
.subckt sky130_fd_sc_hd__mux4_1 A0 A1 A2 A3 S0 S1 VGND VNB VPB VPWR X
.ends

* Black-box entry subcircuit for sky130_fd_sc_hd__and4_4 abstract view
.subckt sky130_fd_sc_hd__and4_4 A B C D VGND VNB VPB VPWR X
.ends

* Black-box entry subcircuit for sky130_fd_sc_hd__or3b_2 abstract view
.subckt sky130_fd_sc_hd__or3b_2 A B C_N VGND VNB VPB VPWR X
.ends

* Black-box entry subcircuit for sky130_fd_sc_hd__a21bo_1 abstract view
.subckt sky130_fd_sc_hd__a21bo_1 A1 A2 B1_N VGND VNB VPB VPWR X
.ends

* Black-box entry subcircuit for sky130_fd_sc_hd__nand3_4 abstract view
.subckt sky130_fd_sc_hd__nand3_4 A B C VGND VNB VPB VPWR Y
.ends

* Black-box entry subcircuit for sky130_fd_sc_hd__and4b_2 abstract view
.subckt sky130_fd_sc_hd__and4b_2 A_N B C D VGND VNB VPB VPWR X
.ends

* Black-box entry subcircuit for sky130_fd_sc_hd__o211a_1 abstract view
.subckt sky130_fd_sc_hd__o211a_1 A1 A2 B1 C1 VGND VNB VPB VPWR X
.ends

* Black-box entry subcircuit for sky130_fd_sc_hd__nand2_2 abstract view
.subckt sky130_fd_sc_hd__nand2_2 A B VGND VNB VPB VPWR Y
.ends

* Black-box entry subcircuit for sky130_fd_sc_hd__and4bb_4 abstract view
.subckt sky130_fd_sc_hd__and4bb_4 A_N B_N C D VGND VNB VPB VPWR X
.ends

* Black-box entry subcircuit for sky130_fd_sc_hd__dlxtn_4 abstract view
.subckt sky130_fd_sc_hd__dlxtn_4 D GATE_N VGND VNB VPB VPWR Q
.ends

* Black-box entry subcircuit for sky130_fd_sc_hd__o2111a_1 abstract view
.subckt sky130_fd_sc_hd__o2111a_1 A1 A2 B1 C1 D1 VGND VNB VPB VPWR X
.ends

* Black-box entry subcircuit for sky130_fd_sc_hd__nor4b_1 abstract view
.subckt sky130_fd_sc_hd__nor4b_1 A B C D_N VGND VNB VPB VPWR Y
.ends

* Black-box entry subcircuit for sky130_fd_sc_hd__nor3_4 abstract view
.subckt sky130_fd_sc_hd__nor3_4 A B C VGND VNB VPB VPWR Y
.ends

* Black-box entry subcircuit for sky130_fd_sc_hd__and4_1 abstract view
.subckt sky130_fd_sc_hd__and4_1 A B C D VGND VNB VPB VPWR X
.ends

* Black-box entry subcircuit for sky130_fd_sc_hd__and4b_4 abstract view
.subckt sky130_fd_sc_hd__and4b_4 A_N B C D VGND VNB VPB VPWR X
.ends

* Black-box entry subcircuit for sky130_fd_sc_hd__and2b_1 abstract view
.subckt sky130_fd_sc_hd__and2b_1 A_N B VGND VNB VPB VPWR X
.ends

* Black-box entry subcircuit for sky130_fd_sc_hd__or4b_1 abstract view
.subckt sky130_fd_sc_hd__or4b_1 A B C D_N VGND VNB VPB VPWR X
.ends

* Black-box entry subcircuit for sky130_fd_sc_hd__conb_1 abstract view
.subckt sky130_fd_sc_hd__conb_1 VGND VNB VPB VPWR HI LO
.ends

* Black-box entry subcircuit for sky130_fd_sc_hd__nor2b_2 abstract view
.subckt sky130_fd_sc_hd__nor2b_2 A B_N VGND VNB VPB VPWR Y
.ends

* Black-box entry subcircuit for sky130_fd_sc_hd__o221a_1 abstract view
.subckt sky130_fd_sc_hd__o221a_1 A1 A2 B1 B2 C1 VGND VNB VPB VPWR X
.ends

* Black-box entry subcircuit for sky130_fd_sc_hd__a221oi_1 abstract view
.subckt sky130_fd_sc_hd__a221oi_1 A1 A2 B1 B2 C1 VGND VNB VPB VPWR Y
.ends

* Black-box entry subcircuit for sky130_fd_sc_hd__or4_4 abstract view
.subckt sky130_fd_sc_hd__or4_4 A B C D VGND VNB VPB VPWR X
.ends

* Black-box entry subcircuit for sky130_fd_sc_hd__and3_4 abstract view
.subckt sky130_fd_sc_hd__and3_4 A B C VGND VNB VPB VPWR X
.ends

* Black-box entry subcircuit for sky130_fd_sc_hd__or4_1 abstract view
.subckt sky130_fd_sc_hd__or4_1 A B C D VGND VNB VPB VPWR X
.ends

* Black-box entry subcircuit for sky130_fd_sc_hd__a2bb2o_1 abstract view
.subckt sky130_fd_sc_hd__a2bb2o_1 A1_N A2_N B1 B2 VGND VNB VPB VPWR X
.ends

* Black-box entry subcircuit for sky130_fd_sc_hd__nor3_1 abstract view
.subckt sky130_fd_sc_hd__nor3_1 A B C VGND VNB VPB VPWR Y
.ends

* Black-box entry subcircuit for sky130_fd_sc_hd__nor2b_4 abstract view
.subckt sky130_fd_sc_hd__nor2b_4 A B_N VGND VNB VPB VPWR Y
.ends

* Black-box entry subcircuit for sky130_fd_sc_hd__a21oi_2 abstract view
.subckt sky130_fd_sc_hd__a21oi_2 A1 A2 B1 VGND VNB VPB VPWR Y
.ends

* Black-box entry subcircuit for sky130_fd_sc_hd__o21ba_1 abstract view
.subckt sky130_fd_sc_hd__o21ba_1 A1 A2 B1_N VGND VNB VPB VPWR X
.ends

* Black-box entry subcircuit for sky130_fd_sc_hd__o21ba_2 abstract view
.subckt sky130_fd_sc_hd__o21ba_2 A1 A2 B1_N VGND VNB VPB VPWR X
.ends

* Black-box entry subcircuit for sky130_fd_sc_hd__or3_4 abstract view
.subckt sky130_fd_sc_hd__or3_4 A B C VGND VNB VPB VPWR X
.ends

* Black-box entry subcircuit for sky130_fd_sc_hd__nand3b_4 abstract view
.subckt sky130_fd_sc_hd__nand3b_4 A_N B C VGND VNB VPB VPWR Y
.ends

* Black-box entry subcircuit for sky130_fd_sc_hd__nand3b_1 abstract view
.subckt sky130_fd_sc_hd__nand3b_1 A_N B C VGND VNB VPB VPWR Y
.ends

* Black-box entry subcircuit for sky130_fd_sc_hd__nor4_2 abstract view
.subckt sky130_fd_sc_hd__nor4_2 A B C D VGND VNB VPB VPWR Y
.ends

* Black-box entry subcircuit for sky130_fd_sc_hd__or2_4 abstract view
.subckt sky130_fd_sc_hd__or2_4 A B VGND VNB VPB VPWR X
.ends

* Black-box entry subcircuit for sky130_fd_sc_hd__dfstp_2 abstract view
.subckt sky130_fd_sc_hd__dfstp_2 CLK D SET_B VGND VNB VPB VPWR Q
.ends

* Black-box entry subcircuit for sky130_fd_sc_hd__o21ai_2 abstract view
.subckt sky130_fd_sc_hd__o21ai_2 A1 A2 B1 VGND VNB VPB VPWR Y
.ends

* Black-box entry subcircuit for sky130_fd_sc_hd__o21ai_1 abstract view
.subckt sky130_fd_sc_hd__o21ai_1 A1 A2 B1 VGND VNB VPB VPWR Y
.ends

* Black-box entry subcircuit for sky130_fd_sc_hd__nor2b_1 abstract view
.subckt sky130_fd_sc_hd__nor2b_1 A B_N VGND VNB VPB VPWR Y
.ends

* Black-box entry subcircuit for sky130_fd_sc_hd__a31o_1 abstract view
.subckt sky130_fd_sc_hd__a31o_1 A1 A2 A3 B1 VGND VNB VPB VPWR X
.ends

* Black-box entry subcircuit for sky130_fd_sc_hd__nand2b_4 abstract view
.subckt sky130_fd_sc_hd__nand2b_4 A_N B VGND VNB VPB VPWR Y
.ends

* Black-box entry subcircuit for sky130_fd_sc_hd__a221oi_4 abstract view
.subckt sky130_fd_sc_hd__a221oi_4 A1 A2 B1 B2 C1 VGND VNB VPB VPWR Y
.ends

* Black-box entry subcircuit for sky130_fd_sc_hd__and4bb_2 abstract view
.subckt sky130_fd_sc_hd__and4bb_2 A_N B_N C D VGND VNB VPB VPWR X
.ends

* Black-box entry subcircuit for sky130_fd_sc_hd__o2bb2a_1 abstract view
.subckt sky130_fd_sc_hd__o2bb2a_1 A1_N A2_N B1 B2 VGND VNB VPB VPWR X
.ends

.subckt Top_module VGND VPWR apb_master_busy m_apb_master_state[0] m_apb_master_state[1]
+ m_apb_master_state[2] m_apb_paddr[0] m_apb_paddr[10] m_apb_paddr[11] m_apb_paddr[12]
+ m_apb_paddr[13] m_apb_paddr[14] m_apb_paddr[15] m_apb_paddr[16] m_apb_paddr[17]
+ m_apb_paddr[18] m_apb_paddr[19] m_apb_paddr[1] m_apb_paddr[20] m_apb_paddr[21] m_apb_paddr[22]
+ m_apb_paddr[23] m_apb_paddr[24] m_apb_paddr[25] m_apb_paddr[26] m_apb_paddr[27]
+ m_apb_paddr[28] m_apb_paddr[29] m_apb_paddr[2] m_apb_paddr[30] m_apb_paddr[31] m_apb_paddr[3]
+ m_apb_paddr[4] m_apb_paddr[5] m_apb_paddr[6] m_apb_paddr[7] m_apb_paddr[8] m_apb_paddr[9]
+ m_apb_pclk m_apb_penable m_apb_presetn m_apb_psel[0] m_apb_psel[1] m_apb_psel[2]
+ m_apb_psel[3] m_apb_pslverrmsg_mux[0] m_apb_pslverrmsg_mux[11] m_apb_pslverrmsg_mux[12]
+ m_apb_pslverrmsg_mux[13] m_apb_pslverrmsg_mux[14] m_apb_pslverrmsg_mux[15] m_apb_pslverrmsg_mux[26]
+ m_apb_pslverrmsg_mux[2] m_apb_pslverrmsg_mux[30] m_apb_pslverrmsg_mux[31] m_apb_pslverrmsg_mux[3]
+ m_apb_pslverrmsg_mux[4] m_apb_pslverrmsg_mux[5] m_apb_pslverrmsg_mux[8] m_apb_pslverrmsg_mux[9]
+ m_apb_pstrb[0] m_apb_pstrb[1] m_apb_pstrb[2] m_apb_pstrb[3] m_apb_pwdata[0] m_apb_pwdata[10]
+ m_apb_pwdata[11] m_apb_pwdata[12] m_apb_pwdata[13] m_apb_pwdata[14] m_apb_pwdata[15]
+ m_apb_pwdata[16] m_apb_pwdata[17] m_apb_pwdata[18] m_apb_pwdata[19] m_apb_pwdata[1]
+ m_apb_pwdata[20] m_apb_pwdata[21] m_apb_pwdata[22] m_apb_pwdata[23] m_apb_pwdata[24]
+ m_apb_pwdata[25] m_apb_pwdata[26] m_apb_pwdata[27] m_apb_pwdata[28] m_apb_pwdata[29]
+ m_apb_pwdata[2] m_apb_pwdata[30] m_apb_pwdata[31] m_apb_pwdata[3] m_apb_pwdata[4]
+ m_apb_pwdata[5] m_apb_pwdata[6] m_apb_pwdata[7] m_apb_pwdata[8] m_apb_pwdata[9]
+ m_apb_pwrite prdata_slaves[0] prdata_slaves[100] prdata_slaves[101] prdata_slaves[102]
+ prdata_slaves[103] prdata_slaves[104] prdata_slaves[105] prdata_slaves[106] prdata_slaves[107]
+ prdata_slaves[108] prdata_slaves[109] prdata_slaves[10] prdata_slaves[110] prdata_slaves[111]
+ prdata_slaves[112] prdata_slaves[113] prdata_slaves[114] prdata_slaves[115] prdata_slaves[116]
+ prdata_slaves[117] prdata_slaves[118] prdata_slaves[119] prdata_slaves[11] prdata_slaves[120]
+ prdata_slaves[121] prdata_slaves[122] prdata_slaves[123] prdata_slaves[124] prdata_slaves[125]
+ prdata_slaves[126] prdata_slaves[127] prdata_slaves[12] prdata_slaves[13] prdata_slaves[14]
+ prdata_slaves[15] prdata_slaves[16] prdata_slaves[17] prdata_slaves[18] prdata_slaves[19]
+ prdata_slaves[1] prdata_slaves[20] prdata_slaves[21] prdata_slaves[22] prdata_slaves[23]
+ prdata_slaves[24] prdata_slaves[25] prdata_slaves[26] prdata_slaves[27] prdata_slaves[28]
+ prdata_slaves[29] prdata_slaves[2] prdata_slaves[30] prdata_slaves[31] prdata_slaves[32]
+ prdata_slaves[33] prdata_slaves[34] prdata_slaves[35] prdata_slaves[36] prdata_slaves[37]
+ prdata_slaves[38] prdata_slaves[39] prdata_slaves[3] prdata_slaves[40] prdata_slaves[41]
+ prdata_slaves[42] prdata_slaves[43] prdata_slaves[44] prdata_slaves[45] prdata_slaves[46]
+ prdata_slaves[47] prdata_slaves[48] prdata_slaves[49] prdata_slaves[4] prdata_slaves[50]
+ prdata_slaves[51] prdata_slaves[52] prdata_slaves[53] prdata_slaves[54] prdata_slaves[55]
+ prdata_slaves[56] prdata_slaves[57] prdata_slaves[58] prdata_slaves[59] prdata_slaves[5]
+ prdata_slaves[60] prdata_slaves[61] prdata_slaves[62] prdata_slaves[63] prdata_slaves[64]
+ prdata_slaves[65] prdata_slaves[66] prdata_slaves[67] prdata_slaves[68] prdata_slaves[69]
+ prdata_slaves[6] prdata_slaves[70] prdata_slaves[71] prdata_slaves[72] prdata_slaves[73]
+ prdata_slaves[74] prdata_slaves[75] prdata_slaves[76] prdata_slaves[77] prdata_slaves[78]
+ prdata_slaves[79] prdata_slaves[7] prdata_slaves[80] prdata_slaves[81] prdata_slaves[82]
+ prdata_slaves[83] prdata_slaves[84] prdata_slaves[85] prdata_slaves[86] prdata_slaves[87]
+ prdata_slaves[88] prdata_slaves[89] prdata_slaves[8] prdata_slaves[90] prdata_slaves[91]
+ prdata_slaves[92] prdata_slaves[93] prdata_slaves[94] prdata_slaves[95] prdata_slaves[96]
+ prdata_slaves[97] prdata_slaves[98] prdata_slaves[99] prdata_slaves[9] pready_slaves[0]
+ pready_slaves[1] pready_slaves[2] pready_slaves[3] pslverr_slaves[0] pslverr_slaves[1]
+ pslverr_slaves[2] pslverr_slaves[3] pslverrmsg_slaves[0] pslverrmsg_slaves[100]
+ pslverrmsg_slaves[101] pslverrmsg_slaves[102] pslverrmsg_slaves[103] pslverrmsg_slaves[104]
+ pslverrmsg_slaves[105] pslverrmsg_slaves[106] pslverrmsg_slaves[107] pslverrmsg_slaves[108]
+ pslverrmsg_slaves[109] pslverrmsg_slaves[10] pslverrmsg_slaves[110] pslverrmsg_slaves[111]
+ pslverrmsg_slaves[112] pslverrmsg_slaves[113] pslverrmsg_slaves[114] pslverrmsg_slaves[115]
+ pslverrmsg_slaves[116] pslverrmsg_slaves[117] pslverrmsg_slaves[118] pslverrmsg_slaves[119]
+ pslverrmsg_slaves[11] pslverrmsg_slaves[120] pslverrmsg_slaves[121] pslverrmsg_slaves[122]
+ pslverrmsg_slaves[123] pslverrmsg_slaves[124] pslverrmsg_slaves[125] pslverrmsg_slaves[126]
+ pslverrmsg_slaves[127] pslverrmsg_slaves[12] pslverrmsg_slaves[13] pslverrmsg_slaves[14]
+ pslverrmsg_slaves[15] pslverrmsg_slaves[16] pslverrmsg_slaves[17] pslverrmsg_slaves[18]
+ pslverrmsg_slaves[19] pslverrmsg_slaves[1] pslverrmsg_slaves[20] pslverrmsg_slaves[21]
+ pslverrmsg_slaves[22] pslverrmsg_slaves[23] pslverrmsg_slaves[24] pslverrmsg_slaves[25]
+ pslverrmsg_slaves[26] pslverrmsg_slaves[27] pslverrmsg_slaves[28] pslverrmsg_slaves[29]
+ pslverrmsg_slaves[2] pslverrmsg_slaves[30] pslverrmsg_slaves[31] pslverrmsg_slaves[32]
+ pslverrmsg_slaves[33] pslverrmsg_slaves[34] pslverrmsg_slaves[35] pslverrmsg_slaves[36]
+ pslverrmsg_slaves[37] pslverrmsg_slaves[38] pslverrmsg_slaves[39] pslverrmsg_slaves[3]
+ pslverrmsg_slaves[40] pslverrmsg_slaves[41] pslverrmsg_slaves[42] pslverrmsg_slaves[43]
+ pslverrmsg_slaves[44] pslverrmsg_slaves[45] pslverrmsg_slaves[46] pslverrmsg_slaves[47]
+ pslverrmsg_slaves[48] pslverrmsg_slaves[49] pslverrmsg_slaves[4] pslverrmsg_slaves[50]
+ pslverrmsg_slaves[51] pslverrmsg_slaves[52] pslverrmsg_slaves[53] pslverrmsg_slaves[54]
+ pslverrmsg_slaves[55] pslverrmsg_slaves[56] pslverrmsg_slaves[57] pslverrmsg_slaves[58]
+ pslverrmsg_slaves[59] pslverrmsg_slaves[5] pslverrmsg_slaves[60] pslverrmsg_slaves[61]
+ pslverrmsg_slaves[62] pslverrmsg_slaves[63] pslverrmsg_slaves[64] pslverrmsg_slaves[65]
+ pslverrmsg_slaves[66] pslverrmsg_slaves[67] pslverrmsg_slaves[68] pslverrmsg_slaves[69]
+ pslverrmsg_slaves[6] pslverrmsg_slaves[70] pslverrmsg_slaves[71] pslverrmsg_slaves[72]
+ pslverrmsg_slaves[73] pslverrmsg_slaves[74] pslverrmsg_slaves[75] pslverrmsg_slaves[76]
+ pslverrmsg_slaves[77] pslverrmsg_slaves[78] pslverrmsg_slaves[79] pslverrmsg_slaves[7]
+ pslverrmsg_slaves[80] pslverrmsg_slaves[81] pslverrmsg_slaves[82] pslverrmsg_slaves[83]
+ pslverrmsg_slaves[84] pslverrmsg_slaves[85] pslverrmsg_slaves[86] pslverrmsg_slaves[87]
+ pslverrmsg_slaves[88] pslverrmsg_slaves[89] pslverrmsg_slaves[8] pslverrmsg_slaves[90]
+ pslverrmsg_slaves[91] pslverrmsg_slaves[92] pslverrmsg_slaves[93] pslverrmsg_slaves[94]
+ pslverrmsg_slaves[95] pslverrmsg_slaves[96] pslverrmsg_slaves[97] pslverrmsg_slaves[98]
+ pslverrmsg_slaves[99] pslverrmsg_slaves[9] s_axi_aclk s_axi_araddr[0] s_axi_araddr[10]
+ s_axi_araddr[11] s_axi_araddr[12] s_axi_araddr[13] s_axi_araddr[14] s_axi_araddr[15]
+ s_axi_araddr[16] s_axi_araddr[17] s_axi_araddr[18] s_axi_araddr[19] s_axi_araddr[1]
+ s_axi_araddr[20] s_axi_araddr[21] s_axi_araddr[22] s_axi_araddr[23] s_axi_araddr[24]
+ s_axi_araddr[25] s_axi_araddr[26] s_axi_araddr[27] s_axi_araddr[28] s_axi_araddr[29]
+ s_axi_araddr[2] s_axi_araddr[30] s_axi_araddr[31] s_axi_araddr[3] s_axi_araddr[4]
+ s_axi_araddr[5] s_axi_araddr[6] s_axi_araddr[7] s_axi_araddr[8] s_axi_araddr[9]
+ s_axi_aresetn s_axi_arready s_axi_arvalid s_axi_awaddr[0] s_axi_awaddr[10] s_axi_awaddr[11]
+ s_axi_awaddr[12] s_axi_awaddr[13] s_axi_awaddr[14] s_axi_awaddr[15] s_axi_awaddr[16]
+ s_axi_awaddr[17] s_axi_awaddr[18] s_axi_awaddr[19] s_axi_awaddr[1] s_axi_awaddr[20]
+ s_axi_awaddr[21] s_axi_awaddr[22] s_axi_awaddr[23] s_axi_awaddr[24] s_axi_awaddr[25]
+ s_axi_awaddr[26] s_axi_awaddr[27] s_axi_awaddr[28] s_axi_awaddr[29] s_axi_awaddr[2]
+ s_axi_awaddr[30] s_axi_awaddr[31] s_axi_awaddr[3] s_axi_awaddr[4] s_axi_awaddr[5]
+ s_axi_awaddr[6] s_axi_awaddr[7] s_axi_awaddr[8] s_axi_awaddr[9] s_axi_awready s_axi_awvalid
+ s_axi_bready s_axi_bresp[1] s_axi_bvalid s_axi_rbusy s_axi_rdata[0] s_axi_rdata[10]
+ s_axi_rdata[11] s_axi_rdata[12] s_axi_rdata[13] s_axi_rdata[14] s_axi_rdata[15]
+ s_axi_rdata[16] s_axi_rdata[17] s_axi_rdata[18] s_axi_rdata[19] s_axi_rdata[1] s_axi_rdata[20]
+ s_axi_rdata[21] s_axi_rdata[22] s_axi_rdata[23] s_axi_rdata[24] s_axi_rdata[25]
+ s_axi_rdata[26] s_axi_rdata[27] s_axi_rdata[28] s_axi_rdata[29] s_axi_rdata[2] s_axi_rdata[30]
+ s_axi_rdata[31] s_axi_rdata[3] s_axi_rdata[4] s_axi_rdata[5] s_axi_rdata[6] s_axi_rdata[7]
+ s_axi_rdata[8] s_axi_rdata[9] s_axi_rdata_return[0] s_axi_rdata_return[10] s_axi_rdata_return[11]
+ s_axi_rdata_return[12] s_axi_rdata_return[13] s_axi_rdata_return[14] s_axi_rdata_return[15]
+ s_axi_rdata_return[16] s_axi_rdata_return[17] s_axi_rdata_return[18] s_axi_rdata_return[19]
+ s_axi_rdata_return[1] s_axi_rdata_return[20] s_axi_rdata_return[21] s_axi_rdata_return[22]
+ s_axi_rdata_return[23] s_axi_rdata_return[24] s_axi_rdata_return[25] s_axi_rdata_return[26]
+ s_axi_rdata_return[27] s_axi_rdata_return[28] s_axi_rdata_return[29] s_axi_rdata_return[2]
+ s_axi_rdata_return[30] s_axi_rdata_return[31] s_axi_rdata_return[3] s_axi_rdata_return[4]
+ s_axi_rdata_return[5] s_axi_rdata_return[6] s_axi_rdata_return[7] s_axi_rdata_return[8]
+ s_axi_rdata_return[9] s_axi_rready s_axi_rresp[0] s_axi_rresp[1] s_axi_rvalid s_axi_wdata[0]
+ s_axi_wdata[10] s_axi_wdata[11] s_axi_wdata[12] s_axi_wdata[13] s_axi_wdata[14]
+ s_axi_wdata[15] s_axi_wdata[16] s_axi_wdata[17] s_axi_wdata[18] s_axi_wdata[19]
+ s_axi_wdata[1] s_axi_wdata[20] s_axi_wdata[21] s_axi_wdata[22] s_axi_wdata[23] s_axi_wdata[24]
+ s_axi_wdata[25] s_axi_wdata[26] s_axi_wdata[27] s_axi_wdata[28] s_axi_wdata[29]
+ s_axi_wdata[2] s_axi_wdata[30] s_axi_wdata[31] s_axi_wdata[3] s_axi_wdata[4] s_axi_wdata[5]
+ s_axi_wdata[6] s_axi_wdata[7] s_axi_wdata[8] s_axi_wdata[9] s_axi_wready s_axi_wstrb[0]
+ s_axi_wstrb[1] s_axi_wstrb[2] s_axi_wstrb[3] s_axi_wvalid sr_axi_slave_state[0]
+ sr_axi_slave_state[1] sw_axi_slave_state[0] sw_axi_slave_state[1] m_apb_pslverrmsg_mux[25]
+ m_apb_pslverrmsg_mux[24] m_apb_pslverrmsg_mux[23] m_apb_pslverrmsg_mux[1] m_apb_pslverrmsg_mux[22]
+ s_axi_bresp[0] m_apb_pslverrmsg_mux[21] m_apb_pslverrmsg_mux[10] m_apb_pslverrmsg_mux[20]
+ m_apb_pslverrmsg_mux[19] m_apb_pslverrmsg_mux[29] m_apb_pslverrmsg_mux[18] m_apb_pslverrmsg_mux[7]
+ m_apb_pslverrmsg_mux[17] m_apb_pslverrmsg_mux[28] m_apb_pslverrmsg_mux[6] m_apb_pslverrmsg_mux[27]
+ m_apb_pslverrmsg_mux[16]
XFILLER_0_94_77 VGND VGND VPWR VPWR sky130_fd_sc_hd__decap_6
X_05903_ axi_slave_fsm_block.axi_awaddr_reg\[8\] net219 _02530_ VGND VGND VPWR VPWR
+ _02539_ sky130_fd_sc_hd__mux2_1
XFILLER_0_118_51 VPWR VGND VPWR VGND sky130_ef_sc_hd__decap_12
X_06883_ net764 _03211_ _03213_ _03054_ VGND VGND VPWR VPWR _00432_ sky130_fd_sc_hd__a22o_1
X_09671_ async_fifo_Writing.rptr\[1\] async_fifo_Writing.rptr\[2\] async_fifo_Writing.rptr\[3\]
+ _02279_ VGND VGND VPWR VPWR _04512_ sky130_fd_sc_hd__and4bb_1
X_08622_ _03955_ VGND VGND VPWR VPWR _01442_ sky130_fd_sc_hd__clkbuf_1
X_05834_ _02502_ VGND VGND VPWR VPWR _00099_ sky130_fd_sc_hd__clkbuf_1
XFILLER_0_89_472 VGND VGND VPWR VPWR sky130_fd_sc_hd__decap_4
X_05765_ _02465_ VGND VGND VPWR VPWR net299 sky130_fd_sc_hd__clkbuf_1
X_08553_ async_fifo_Reading.async_fifo\[11\]\[5\] _03760_ _03917_ VGND VGND VPWR VPWR
+ _03919_ sky130_fd_sc_hd__mux2_1
XFILLER_0_77_645 VGND VGND VPWR VPWR sky130_fd_sc_hd__decap_6
XFILLER_0_76_133 VGND VGND VPWR VPWR sky130_fd_sc_hd__decap_3
X_07504_ _03470_ VGND VGND VPWR VPWR _00801_ sky130_fd_sc_hd__clkbuf_1
X_08484_ _03882_ VGND VGND VPWR VPWR _01377_ sky130_fd_sc_hd__clkbuf_1
XFILLER_0_37_509 VGND VGND VPWR VPWR sky130_fd_sc_hd__fill_1
X_05696_ net2001 _02425_ VGND VGND VPWR VPWR _02427_ sky130_fd_sc_hd__and2_1
XFILLER_0_65_818 VPWR VGND VPWR VGND sky130_ef_sc_hd__decap_12
XFILLER_0_92_615 VGND VGND VPWR VPWR sky130_fd_sc_hd__decap_4
XFILLER_0_130_1031 VGND VGND VPWR VPWR sky130_fd_sc_hd__decap_4
XFILLER_0_134_94 VGND VGND VPWR VPWR sky130_fd_sc_hd__decap_3
XFILLER_0_43_92 VGND VGND VPWR VPWR sky130_fd_sc_hd__fill_1
X_07435_ net1263 _03443_ _03444_ _03033_ VGND VGND VPWR VPWR _00758_ sky130_fd_sc_hd__a22o_1
XFILLER_0_119_246 VGND VGND VPWR VPWR sky130_fd_sc_hd__decap_8
XFILLER_0_119_268 VGND VGND VPWR VPWR sky130_fd_sc_hd__fill_1
XFILLER_0_175_897 VGND VGND VPWR VPWR sky130_fd_sc_hd__fill_2
X_07366_ _03412_ VGND VGND VPWR VPWR _00721_ sky130_fd_sc_hd__clkbuf_1
XFILLER_0_128_780 VPWR VGND VPWR VGND sky130_ef_sc_hd__decap_12
XFILLER_0_33_715 VGND VGND VPWR VPWR sky130_fd_sc_hd__decap_4
X_09105_ async_fifo_Reading.async_fifo\[3\]\[7\] apb_master_fsm_block.m_apb_read_response\[7\]
+ _04209_ VGND VGND VPWR VPWR _04213_ sky130_fd_sc_hd__mux2_1
XFILLER_0_17_277 VGND VGND VPWR VPWR sky130_fd_sc_hd__decap_3
XFILLER_0_45_586 VPWR VGND VPWR VGND sky130_ef_sc_hd__decap_12
X_06317_ async_fifo_Reading.async_fifo\[11\]\[24\] _02869_ _02870_ async_fifo_Reading.async_fifo\[13\]\[24\]
+ _02871_ VGND VGND VPWR VPWR _02872_ sky130_fd_sc_hd__a221o_1
XFILLER_0_150_82 VGND VGND VPWR VPWR sky130_fd_sc_hd__fill_2
XFILLER_0_150_709 VGND VGND VPWR VPWR sky130_fd_sc_hd__fill_1